power-flow-agent/results/ieee14/2026-09-16/gpt-4o-mini/pfagent__stress/traces/35_case14-stress-034-s0.transcript.txt
==============================================================================
TRANSCRIPT  pfagent  |  openrouter:openai/gpt-4o-mini  |  case14  |  case14-stress-034-s0  run 0
==============================================================================
date: 2026-09-16   seed: 0   difficulty: stress   tool variant: None

[system]   (hash 7da5e2a37ec4, from methods/pfagent/method.json prompt_files)
You are a power system power-flow analysis assistant. You help the user complete power system analysis tasks from natural-language requests.

## What you can do
You complete tasks by calling tool functions:
1. Load an IEEE standard test system (14, 30, 57, 118, 300 buses)
2. Run AC power flow
3. Modify the load at a bus and re-solve
4. Disconnect or reconnect a line and re-solve
5. Query the network status
6. Run an N-1 contingency analysis (disconnect branches one at a time and rank the worst cases)
7. Generate remedial-action suggestions (what-if load shedding or voltage adjustment) to reduce violation risk

## Key rules
- Never fabricate any numerical result. Every voltage, power, loss, or loading value must come from a tool return value.
- If a tool reports an error or a non-converged power flow, say so explicitly and do not report numbers for that state.
- If the request is ambiguous, state the interpretation you are using.
- Bus and line identifiers in the request are MATPOWER 1-based ids; pass them to the tools as given, unless the request itself states a different indexing convention for that identifier (e.g. "(0-based)"), in which case convert it to the MATPOWER 1-based id before calling any tool.
- After a network modification, re-solve before reporting any value.
- Always reply in English.

## Reply format
After each analysis, reply in this structure:
1. One-sentence summary
2. Key numbers (total load, total generation, total losses, voltage range) taken from the tool outputs
3. Violations, if any
4. Suggested next step

[user]
Load the IEEE 14-bus system, set the active load at bus 4 to 41.2 MW, increase the load at bus 14 to 89.4 MW and 30 Mvar (six times its nominal value), increase the load at bus 3 to 565.2 MW and 114 Mvar (six times its nominal value), increase the load at bus 9 to 177 MW and 99.6 Mvar (six times its nominal value), and finally rerun the power flow, then list every line whose loading is above 80%.

--- round 1 ---
[assistant]   (856 in / 16 out tokens, 0.9 s)
(no text)
tool_call  load_case(case_name="case14")
[tool load_case]   (gate: not applied)
{"case_name": "case14", "n_buses": 14, "n_generators": 5, "n_lines": 20, "n_loads": 11, "total_load_mw": 253.67038588043255, "total_gen_capacity_mw": 772.4000000000001}

--- round 2 ---
[assistant]   (950 in / 126 out tokens, 1.5 s)
(no text)
tool_call  modify_load(bus_id=4, p_mw=41.2)
tool_call  modify_load(bus_id=14, p_mw=89.4, q_mvar=30)
tool_call  modify_load(bus_id=3, p_mw=565.2, q_mvar=114)
tool_call  modify_load(bus_id=9, p_mw=177, q_mvar=99.6)
[tool modify_load]   (gate: pass)
{"case_name": "case14", "converged": true, "bus_voltages": [{"bus_id": 1, "vm_pu": 1.06, "va_deg": 0.0, "is_violation": true, "violation_type": "overvoltage"}, {"bus_id": 2, "vm_pu": 1.045, "va_deg": -4.760663812537282, "is_violation": false, "violation_type": null}, {"bus_id": 3, "vm_pu": 1.01, "va_deg": -12.167072988803872, "is_violation": false, "violation_type": null}, {"bus_id": 4, "vm_pu": 1.0181265676232942, "va_deg": -9.900147074623513, "is_violation": false, "violation_type": null}, {"bus_id": 5, "vm_pu": 1.019808224042916, "va_deg": -8.465790431027905, "is_violation": false, "violation_type": null}, {"bus_id": 6, "vm_pu": 1.0700000000000003, "va_deg": -14.094959713119003, "is_violation": true, "violation_type": "overvoltage"}, {"bus_id": 7, "vm_pu": 1.0613970569822897, "va_deg": -13.077649667194033, "is_violation": true, "violation_type": "overvoltage"}, {"bus_id": 8, "vm_pu": 1.0899999999999996, "va_deg": -13.077649667194033, "is_violation": true, "violation_type": "overvoltage"}, {"bus_id": 9, "vm_pu": 1.0555270926156988, "va_deg": -14.725634769839491, "is_violation": true, "violation_type": "overvoltage"}, {"bus_id": 10, "vm_pu": 1.0506445089246552, "va_deg": -14.90107448910948, "is_violation": true, "violation_type": "overvoltage"}, {"bus_id": 11, "vm_pu": 1.0564528772798931, "va_deg": -14.641408274692909, "is_violation": true, "violation_type": "overvoltage"}, {"bus_id": 12, "vm_pu": 1.054172052423911, "va_deg": -15.000174389900572, "is_violation": true, "violation_type": "overvoltage"}, {"bus_id": 13, "vm_pu": 1.0489070770960744, "va_deg": -15.08416022637599, "is_violation": false, "violation_type": null}, {"bus_id": 14, "vm_pu": 1.0331004373631723, "va_deg": -15.969039239592364, "is_violation": false, "violation_type": null}], "line_flows": [{"line_id": 0, "from_bus": 1, "to_bus": 2, "p_from_mw": 150.1757973374129, "q_from_mvar": -18.823301603044847, "loading_percent": 1.442261035862568, "is_violation": false}, {"line_id": 1, "from_bus": 1, "to_bus": 5, "p_from_mw": 72.97587526987904, "q_from_mvar": 3.9401327811301, "loading_percent": 0.697371214990306, "is_violation": false}, {"line_id": 2, "from_bus": 2, "to_bus": 3, "p_from_mw": 70.21016591546243, "q_from_mvar": 3.8665484758284046, "loading_percent": 0.6808091559850821, "is_violation": false}, {"line_id": 3, "from_bus": 2, "to_bus": 4, "p_from_mw": 54.214408762544394, "q_from_mvar": -1.370820596101922, "loading_percent": 0.5242060481365313, "is_violation": false}, {"line_id": 4, "from_bus": 2, "to_bus": 5, "p_from_mw": 40.626374304770984, "q_from_mvar": 1.225685294394955, "loading_percent": 0.3944626074690226, "is_violation": false}, {"line_id": 5, "from_bus": 3, "to_bus": 4, "p_from_mw": -22.087501429906876, "q_from_mvar": 3.672552876457031, "loading_percent": 0.22619488088161765, "is_violation": false}, {"line_id": 6, "from_bus": 4, "to_bus": 5, "p_from_mw": -57.03177604137506, "q_from_mvar": 14.7873246369832, "loading_percent": 0.584532128065645, "is_violation": false}, {"line_id": 7, "from_bus": 6, "to_bus": 11, "p_from_mw": 7.257717268106982, "q_from_mvar": 3.84788949125022, "loading_percent": 0.07754804624312518, "is_violation": false}, {"line_id": 8, "from_bus": 6, "to_bus": 12, "p_from_mw": 8.265392797446385, "q_from_mvar": 2.7042261561960594, "loading_percent": 0.08209690911063239, "is_violation": false}, {"line_id": 9, "from_bus": 6, "to_bus": 13, "p_from_mw": 18.870547379192587, "q_from_mvar": 7.8712096224259485, "loading_percent": 0.19301762132356973, "is_violation": false}, {"line_id": 10, "from_bus": 9, "to_bus": 10, "p_from_mw": 5.532808398012157, "q_from_mvar": 4.022380880702927, "loading_percent": 0.06546044929645413, "is_violation": false}, {"line_id": 11, "from_bus": 9, "to_bus": 14, "p_from_mw": 10.575068032594256, "q_from_mvar": 3.8785203615386723, "loading_percent": 0.10779122829902693, "is_violation": false}, {"line_id": 12, "from_bus": 10, "to_bus": 11, "p_from_mw": -3.3605015938360565, "q_from_mvar": -1.7357421337956556, "loading_percent": 0.03636341443215148, "is_violation": false}, {"line_id": 13, "from_bus": 12, "to_bus": 13, "p_from_mw": 1.7467535965163026, "q_from_mvar": 0.8467328980619132, "loading_percent": 0.018600079029262154, "is_violation": false}, {"line_id": 14, "from_bus": 13, "to_bus": 14, "p_from_mw": 5.7738672880514965, "q_from_mvar": 1.965305143209194, "loading_percent": 0.05873528379852401, "is_violation": false}, {"line_id": 100000, "from_bus": 4, "to_bus": 7, "p_from_mw": 29.287740311137828, "q_from_mvar": -9.32707860426825, "loading_percent": 0.30494758070577765, "is_violation": false}, {"line_id": 100001, "from_bus": 4, "to_bus": 9, "p_from_mw": 16.774015972297867, "q_from_mvar": -0.20546285525292413, "loading_percent": 0.16643040289288483, "is_violation": false}, {"line_id": 100002, "from_bus": 5, "to_bus": 6, "p_from_mw": 45.569487346295524, "q_from_mvar": 12.75388956434054, "loading_percent": 0.46870178248990285, "is_violation": false}, {"line_id": 100003, "from_bus": 7, "to_bus": 8, "p_from_mw": -1.1019408157554827e-14, "q_from_mvar": -17.234788271376356, "loading_percent": 0.1640185162307717, "is_violation": false}, {"line_id": 100004, "from_bus": 7, "to_bus": 9, "p_from_mw": 29.28774031079166, "q_from_mvar": 6.084678668458276, "loading_percent": 0.28467459538074513, "is_violation": false}], "total_generation_mw": 263.0579766232739, "total_load_mw": 250.5816726762912, "total_loss_mw": 12.476303952295394, "voltage_violations": [{"bus_id": 1, "vm_pu": 1.06, "va_deg": 0.0, "is_violation": true, "violation_type": "overvoltage"}, {"bus_id": 6, "vm_pu": 1.0700000000000003, "va_deg": -14.094959713119003, "is_violation": true, "violation_type": "overvoltage"}, {"bus_id": 7, "vm_pu": 1.0613970569822897, "va_deg": -13.077649667194033, "is_violation": true, "violation_type": "overvoltage"}, {"bus_id": 8, "vm_pu": 1.0899999999999996, "va_deg": -13.077649667194033, "is_violation": true, "violation_type": "overvoltage"}, {"bus_id": 9, "vm_pu": 1.0555270926156988, "va_deg": -14.725634769839491, "is_violation": true, "violation_type": "overvoltage"}, {"bus_id": 10, "vm_pu": 1.0506445089246552, "va_deg": -14.90107448910948, "is_violation": true, "violation_type": "overvoltage"}, {"bus_id": 11, "vm_pu": 1.0564528772798931, "va_deg": -14.641408274692909, "is_violation": true, "violation_type": "overvoltage"}, {"bus_id": 12, "vm_pu": 1.054172052423911, "va_deg": -15.000174389900572, "is_violation": true, "violation_type": "overvoltage"}], "thermal_violations": [], "summary_text": "", "solver_backend": "pandapower", "llm_prompt": null, "llm_response": null}
[tool modify_load]   (gate: pass)
{"case_name": "case14", "converged": true, "bus_voltages": [{"bus_id": 1, "vm_pu": 1.06, "va_deg": 0.0, "is_violation": true, "violation_type": "overvoltage"}, {"bus_id": 2, "vm_pu": 1.0450000000000002, "va_deg": -6.795986424318808, "is_violation": false, "violation_type": null}, {"bus_id": 3, "vm_pu": 1.0100000000000005, "va_deg": -15.60266554072709, "is_violation": false, "violation_type": null}, {"bus_id": 4, "vm_pu": 0.996096318572747, "va_deg": -14.125641194685436, "is_violation": false, "violation_type": null}, {"bus_id": 5, "vm_pu": 0.9997657245056313, "va_deg": -12.412133144181345, "is_violation": false, "violation_type": null}, {"bus_id": 6, "vm_pu": 1.07, "va_deg": -23.28003139670804, "is_violation": true, "violation_type": "overvoltage"}, {"bus_id": 7, "vm_pu": 1.0325613160292708, "va_deg": -20.65201922225437, "is_violation": false, "violation_type": null}, {"bus_id": 8, "vm_pu": 1.09, "va_deg": -20.652019222254374, "is_violation": true, "violation_type": "overvoltage"}, {"bus_id": 9, "vm_pu": 1.0093956815394525, "va_deg": -24.11088833493375, "is_violation": false, "violation_type": null}, {"bus_id": 10, "vm_pu": 1.0122287773746597, "va_deg": -24.242814978988907, "is_violation": false, "violation_type": null}, {"bus_id": 11, "vm_pu": 1.0366249633390892, "va_deg": -23.88060631023717, "is_violation": false, "violation_type": null}, {"bus_id": 12, "vm_pu": 1.0366432581725304, "va_deg": -25.01446175847142, "is_violation": false, "violation_type": null}, {"bus_id": 13, "vm_pu": 1.008874996827624, "va_deg": -25.561197789684304, "is_violation": false, "violation_type": null}, {"bus_id": 14, "vm_pu": 0.8738524631554885, "va_deg": -32.18028529181526, "is_violation": true, "violation_type": "undervoltage"}], "line_flows": [{"line_id": 0, "from_bus": 1, "to_bus": 2, "p_from_mw": 211.90645690536854, "q_from_mvar": -32.34698589422677, "loading_percent": 2.042701383291072, "is_violation": false}, {"line_id": 1, "from_bus": 1, "to_bus": 5, "p_from_mw": 105.5580139263081, "q_from_mvar": 11.397144864472809, "loading_percent": 1.0131368850665623, "is_violation": false}, {"line_id": 2, "from_bus": 2, "to_bus": 3, "p_from_mw": 82.83401806450776, "q_from_mvar": 2.707459868252086, "loading_percent": 0.8011043778079563, "is_violation": false}, {"line_id": 3, "from_bus": 2, "to_bus": 4, "p_from_mw": 77.98806248353995, "q_from_mvar": 6.248889169183059, "loading_percent": 0.7576721751906522, "is_violation": false}, {"line_id": 4, "from_bus": 2, "to_bus": 5, "p_from_mw": 61.99877819561282, "q_from_mvar": 7.8741303967244285, "loading_percent": 0.6079337848767208, "is_violation": false}, {"line_id": 5, "from_bus": 3, "to_bus": 4, "p_from_mw": -10.289330436139151, "q_from_mvar": 11.784643788218656, "loading_percent": 0.16634344581556126, "is_violation": false}, {"line_id": 6, "from_bus": 4, "to_bus": 5, "p_from_mw": -66.45283409799349, "q_from_mvar": 13.444985646889512, "loading_percent": 0.6875254223563462, "is_violation": false}, {"line_id": 7, "from_bus": 6, "to_bus": 11, "p_from_mw": 11.753471171693478, "q_from_mvar": 12.372436618016188, "loading_percent": 0.1610989000962581, "is_violation": false}, {"line_id": 8, "from_bus": 6, "to_bus": 12, "p_from_mw": 16.186425469679108, "q_from_mvar": 6.3739334664867435, "loading_percent": 0.16422344152617088, "is_violation": false}, {"line_id": 9, "from_bus": 6, "to_bus": 13, "p_from_mw": 46.755304040326365, "q_from_mvar": 27.121044866651495, "loading_percent": 0.5102606923667509, "is_violation": false}, {"line_id": 10, "from_bus": 9, "to_bus": 10, "p_from_mw": 1.3237532303163257, "q_from_mvar": -3.8793989333073937, "loading_percent": 0.04101895686537493, "is_violation": false}, {"line_id": 11, "from_bus": 9, "to_bus": 14, "p_from_mw": 58.23131966738059, "q_from_mvar": 26.456251185003794, "loading_percent": 0.64004209573482, "is_violation": false}, {"line_id": 12, "from_bus": 10, "to_bus": 11, "p_from_mw": -7.561442903666189, "q_from_mvar": -9.615968317022762, "loading_percent": 0.12207121370301176, "is_violation": false}, {"line_id": 13, "from_bus": 12, "to_bus": 13, "p_from_mw": 9.424094203695866, "q_from_mvar": 4.009249034605858, "loading_percent": 0.09979243336747505, "is_violation": false}, {"line_id": 14, "from_bus": 13, "to_bus": 14, "p_from_mw": 39.68132580984346, "q_from_mvar": 21.34072631269141, "loading_percent": 0.4511065422774634, "is_violation": false}, {"line_id": 100000, "from_bus": 4, "to_bus": 7, "p_from_mw": 57.16007676147691, "q_from_mvar": -3.5878219012306864, "loading_percent": 0.5807779419598439, "is_violation": false}, {"line_id": 100001, "from_bus": 4, "to_bus": 9, "p_from_mw": 32.34887599107849, "q_from_mvar": 6.257712423430021, "loading_percent": 0.3341182026169651, "is_violation": false}, {"line_id": 100002, "from_bus": 5, "to_bus": 6, "p_from_mw": 85.87103058411543, "q_from_mvar": 9.322039901610783, "loading_percent": 0.872684674698066, "is_violation": false}, {"line_id": 100003, "from_bus": 7, "to_bus": 8, "p_from_mw": 4.252226746663082e-14, "q_from_mvar": -33.66957883156711, "loading_percent": 0.32937197103438093, "is_violation": false}, {"line_id": 100004, "from_bus": 7, "to_bus": 9, "p_from_mw": 57.160076761126234, "q_from_mvar": 23.469284172084844, "loading_percent": 0.6044655606677507, "is_violation": false}], "total_generation_mw": 357.3707748476586, "total_load_mw": 323.8352813564324, "total_loss_mw": 33.53549349350615, "voltage_violations": [{"bus_id": 1, "vm_pu": 1.06, "va_deg": 0.0, "is_violation": true, "violation_type": "overvoltage"}, {"bus_id": 6, "vm_pu": 1.07, "va_deg": -23.28003139670804, "is_violation": true, "violation_type": "overvoltage"}, {"bus_id": 8, "vm_pu": 1.09, "va_deg": -20.652019222254374, "is_violation": true, "violation_type": "overvoltage"}, {"bus_id": 14, "vm_pu": 0.8738524631554885, "va_deg": -32.18028529181526, "is_violation": true, "violation_type": "undervoltage"}], "thermal_violations": [], "summary_text": "", "solver_backend": "pandapower", "llm_prompt": null, "llm_response": null}
[tool modify_load]   (gate: pass)
{"case_name": "case14", "converged": true, "bus_voltages": [{"bus_id": 1, "vm_pu": 1.06, "va_deg": 0.0, "is_violation": true, "violation_type": "overvoltage"}, {"bus_id": 2, "vm_pu": 1.0450000000000004, "va_deg": -27.08138934310495, "is_violation": false, "violation_type": null}, {"bus_id": 3, "vm_pu": 1.01, "va_deg": -78.40902510497938, "is_violation": false, "violation_type": null}, {"bus_id": 4, "vm_pu": 0.9196530711046811, "va_deg": -44.71272758845369, "is_violation": true, "violation_type": "undervoltage"}, {"bus_id": 5, "vm_pu": 0.9235608999065548, "va_deg": -37.38408882799632, "is_violation": true, "violation_type": "undervoltage"}, {"bus_id": 6, "vm_pu": 1.0699999999999998, "va_deg": -51.41352854805144, "is_violation": true, "violation_type": "overvoltage"}, {"bus_id": 7, "vm_pu": 0.9955836669559438, "va_deg": -50.91980803938704, "is_violation": false, "violation_type": null}, {"bus_id": 8, "vm_pu": 1.0900000000000005, "va_deg": -50.919808039387036, "is_violation": true, "violation_type": "overvoltage"}, {"bus_id": 9, "vm_pu": 0.9700552429608704, "va_deg": -54.08050699532852, "is_violation": false, "violation_type": null}, {"bus_id": 10, "vm_pu": 0.9790354510990047, "va_deg": -53.86155924256946, "is_violation": false, "violation_type": null}, {"bus_id": 11, "vm_pu": 1.0190506722692558, "va_deg": -52.721023314976314, "is_violation": false, "violation_type": null}, {"bus_id": 12, "vm_pu": 1.0329791864741893, "va_deg": -53.308551746899795, "is_violation": false, "violation_type": null}, {"bus_id": 13, "vm_pu": 1.0006288846863047, "va_deg": -53.94377354958357, "is_violation": false, "violation_type": null}, {"bus_id": 14, "vm_pu": 0.8423734113968866, "va_deg": -61.93452062652099, "is_violation": true, "violation_type": "undervoltage"}], "line_flows": [{"line_id": 0, "from_bus": 1, "to_bus": 2, "p_from_mw": 838.3590424261062, "q_from_mvar": -45.431335520438715, "loading_percent": 8.000658661198333, "is_violation": false}, {"line_id": 1, "from_bus": 1, "to_bus": 5, "p_from_mw": 287.19063775731837, "q_from_mvar": 82.6708912394095, "loading_percent": 2.84784356752441, "is_violation": false}, {"line_id": 2, "from_bus": 2, "to_bus": 3, "p_from_mw": 443.1274668411694, "q_from_mvar": 110.90059050254749, "loading_percent": 4.4153897551571015, "is_violation": false}, {"line_id": 3, "from_bus": 2, "to_bus": 4, "p_from_mw": 178.6132917147138, "q_from_mvar": 39.171208786085174, "loading_percent": 1.770221715729264, "is_violation": false}, {"line_id": 4, "from_bus": 2, "to_bus": 5, "p_from_mw": 113.88792554094805, "q_from_mvar": 42.74255890973262, "loading_percent": 1.185572633335432, "is_violation": false}, {"line_id": 5, "from_bus": 3, "to_bus": 4, "p_from_mw": -212.0903416572667, "q_from_mvar": 227.04296784195992, "loading_percent": 3.113402945283371, "is_violation": false}, {"line_id": 6, "from_bus": 4, "to_bus": 5, "p_from_mw": -231.5028540521331, "q_from_mvar": 81.33539430729574, "loading_percent": 2.695079317468671, "is_violation": false}, {"line_id": 7, "from_bus": 6, "to_bus": 11, "p_from_mw": 20.899757793739447, "q_from_mvar": 17.571186879790233, "loading_percent": 0.25776170215016114, "is_violation": false}, {"line_id": 8, "from_bus": 6, "to_bus": 12, "p_from_mw": 17.745113340147675, "q_from_mvar": 7.195278635351034, "loading_percent": 0.18076462128009446, "is_violation": false}, {"line_id": 9, "from_bus": 6, "to_bus": 13, "p_from_mw": 52.17164874442475, "q_from_mvar": 31.28839563865239, "loading_percent": 0.5742902648768923, "is_violation": false}, {"line_id": 10, "from_bus": 9, "to_bus": 10, "p_from_mw": -7.158301501198509, "q_from_mvar": -7.606281680949807, "loading_percent": 0.10876128922945379, "is_violation": false}, {"line_id": 11, "from_bus": 9, "to_bus": 14, "p_from_mw": 52.55232854124232, "q_from_mvar": 23.938332196776077, "loading_percent": 0.6013158443339071, "is_violation": false}, {"line_id": 12, "from_bus": 10, "to_bus": 11, "p_from_mw": -16.075131244321824, "q_from_mvar": -13.426882500284917, "loading_percent": 0.21609551770983812, "is_violation": false}, {"line_id": 13, "from_bus": 12, "to_bus": 13, "p_from_mw": 10.914039125454345, "q_from_mvar": 4.68752094903374, "loading_percent": 0.11615020217815925, "is_violation": false}, {"line_id": 14, "from_bus": 13, "to_bus": 14, "p_from_mw": 46.060905674163166, "q_from_mvar": 25.23051360849214, "loading_percent": 0.5301558195481308, "is_violation": false}, {"line_id": 100000, "from_bus": 4, "to_bus": 7, "p_from_mw": 48.40411395044198, "q_from_mvar": -22.216446873089136, "loading_percent": 0.5849710526387684, "is_violation": false}, {"line_id": 100001, "from_bus": 4, "to_bus": 9, "p_from_mw": 26.943792942616117, "q_from_mvar": -1.3726523065016882, "loading_percent": 0.29632095540794245, "is_violation": false}, {"line_id": 100002, "from_bus": 5, "to_bus": 6, "p_from_mw": 101.9923497809404, "q_from_mvar": -18.53475333347946, "loading_percent": 1.1337628185223303, "is_violation": false}, {"line_id": 100003, "from_bus": 7, "to_bus": 8, "p_from_mw": -5.274875417193432e-14, "q_from_mvar": -53.36324670595259, "loading_percent": 0.5414137574671298, "is_violation": false}, {"line_id": 100004, "from_bus": 7, "to_bus": 9, "p_from_mw": 48.40411395044187, "q_from_mvar": 24.438500702839757, "loading_percent": 0.5501427230951633, "is_violation": false}], "total_generation_mw": 1165.4559841994064, "total_load_mw": 798.8756234042121, "total_loss_mw": 366.5803607951943, "voltage_violations": [{"bus_id": 1, "vm_pu": 1.06, "va_deg": 0.0, "is_violation": true, "violation_type": "overvoltage"}, {"bus_id": 4, "vm_pu": 0.9196530711046811, "va_deg": -44.71272758845369, "is_violation": true, "violation_type": "undervoltage"}, {"bus_id": 5, "vm_pu": 0.9235608999065548, "va_deg": -37.38408882799632, "is_violation": true, "violation_type": "undervoltage"}, {"bus_id": 6, "vm_pu": 1.0699999999999998, "va_deg": -51.41352854805144, "is_violation": true, "violation_type": "overvoltage"}, {"bus_id": 8, "vm_pu": 1.0900000000000005, "va_deg": -50.919808039387036, "is_violation": true, "violation_type": "overvoltage"}, {"bus_id": 14, "vm_pu": 0.8423734113968866, "va_deg": -61.93452062652099, "is_violation": true, "violation_type": "undervoltage"}], "thermal_violations": [], "summary_text": "", "solver_backend": "pandapower", "llm_prompt": null, "llm_response": null}
[tool modify_load]   (gate: FAIL, not enforced)
{"case_name": "case14", "converged": false, "bus_voltages": [], "line_flows": [], "total_generation_mw": 0.0, "total_load_mw": 0.0, "total_loss_mw": 0.0, "voltage_violations": [], "thermal_violations": [], "summary_text": "Power flow failed: LoadflowNotConverged: Power Flow nr did not converge after 10 iterations!", "solver_backend": "pandapower", "llm_prompt": null, "llm_response": null}

--- round 3 ---
[assistant]   (8861 in / 117 out tokens, 2.2 s)
The power flow analysis did not converge after the modifications to the loads, indicating that the system is likely overloaded or unstable under the new conditions.

Key numbers:
- Total load: 798.88 MW
- Total generation: 1165.46 MW
- Total losses: 366.58 MW
- Voltage range: Not applicable due to non-convergence.

Violations:
- The system experienced non-convergence, indicating potential overloads or instability.

Suggested next step:
Consider reducing the loads or adjusting generation to achieve convergence, and then rerun the power flow analysis.

--- round 3 ---
[assistant]   (9151 in / 11 out tokens, 0.8 s)
(no text)
tool_call  run_powerflow()
[tool run_powerflow]   (gate: FAIL, not enforced)
{"case_name": "case14", "converged": false, "bus_voltages": [], "line_flows": [], "total_generation_mw": 0.0, "total_load_mw": 0.0, "total_loss_mw": 0.0, "voltage_violations": [], "thermal_violations": [], "summary_text": "Power flow failed: LoadflowNotConverged: Power Flow nr did not converge after 10 iterations!", "solver_backend": "pandapower", "llm_prompt": null, "llm_response": null}

--- round 4 ---
[assistant]   (9297 in / 140 out tokens, 1.8 s)
The power flow analysis did not converge after the modifications to the loads, indicating that the system is likely overloaded or unstable under the new conditions.

Key numbers:
- Total load: 0.0 MW (not applicable due to non-convergence)
- Total generation: 0.0 MW (not applicable due to non-convergence)
- Total losses: 0.0 MW (not applicable due to non-convergence)
- Voltage range: Not applicable due to non-convergence.

Violations:
- The system experienced non-convergence, indicating potential overloads or instability.

Suggested next step:
Consider reducing the loads or adjusting generation to achieve convergence, and then rerun the power flow analysis.

[final answer]
No numerical result is reported. Verification failed: the last power flow did not converge after setting the load at bus 9 to 177 MW. This is a declared failure of the verification step, not a claim that the network failed to converge.

[verification gate]   outcome: abstained after 2 attempt(s)
attempt 1: FAIL
      converged              FAIL  residual 1
      balance                pass  residual 0
      no_isolated_buses      pass  residual 0
      faithfulness           pass  residual 0
      currency               FAIL  residual 3
attempt 2: FAIL
      converged              FAIL  residual 1
      balance                pass  residual 0
      no_isolated_buses      pass  residual 0
      faithfulness           pass  residual 0
      currency               pass  residual 0
[retry message to the model]
Verification failed before this answer could be accepted. Failed condition(s):
- the last power flow did not converge after setting the load at bus 9 to 177 MW
- the answer quotes 3 number(s) from a solve made before the last network change (setting the load at bus 9 to 177 MW)
Produce a corrected final answer. You may call tools again if needed, but only to inspect the current state (e.g. re-running the power flow) -- do not undo or reverse a network change the request asked for (do not reconnect a line it asked you to disconnect, do not revert a load value it asked you to set) just to reach a state that passes verification. If the requested state genuinely fails, report that failure. Do not change a number without a tool call to support it.

[status] verification_failed
